data_HKUST-1
_cell_length_a    26.343
_cell_length_b    26.343
_cell_length_c    26.343
_cell_angle_alpha 90.0
_cell_angle_beta  90.0
_cell_angle_gamma 90.0
_symmetry_space_group_name_H-M 'F m -3 m'

loop_
_atom_site_label
_atom_site_type_symbol
_atom_site_fract_x
_atom_site_fract_y
_atom_site_fract_z
Cu1 Cu 0.250 0.250 0.250
O1  O  0.200 0.200 0.200
C1  C  0.150 0.150 0.150
